[General]
network = VerticalHandover
cmdenv-config-name = Interact
cmdenv-interactive = true
cpu-time-limit = 300s
real-time-limit = 300s
sim-time-limit = 100h

**.networkSize = 2  # amount of networks in the system



